$# LS-DYNA Keyword file created by LS-PrePost(R) 2025 R1 (v4.12.6) - 14May2025
$# Created on Sep-15-2026 (19:21:11)
*KEYWORD
*TITLE
$#                                                                         title
LS-DYNA keyword deck by LS-PrePost
*CONTROL_TERMINATION
$#  endtim    endcyc     dtmin    endeng    endmas     nosol
      10.0         0       0.0       0.01.000000E8         0
*DATABASE_BINARY_D3PLOT
$#      dt      lcdt      beam     npltc    psetid
       0.1         0         0         0         0
*BOUNDARY_SPC_SET
$#    nsid       cid      dofx      dofy      dofz     dofrx     dofry     dofrz
         1         0         1         1         1         1         1         1
*SET_NODE_LIST_TITLE
NODESET(SPC) 1
$#     sid       da1       da2       da3       da4    solver       its         -
         1       0.0       0.0       0.0       0.0MECH               1          
$#    nid1      nid2      nid3      nid4      nid5      nid6      nid7      nid8
        23        22        21        20        19        18        17        16
        15        14        13        12        11        10         9         8
         7         6         5         4         3         2         1        24
        25        26        27        28        29        30        31        32
        33        34        35        36        37        38        39        40
        41        42        43        44        45        46        47        48
        49        50        51        52        53        54        55        56
        57        58        59        60        61        62        63        64
        65        66        67        68        69        70        71        72
        73        74        75        76        77        78        79        80
        81        82        83        84        85        86        87        88
        89        90        91        92        93        94        95        96
        97        98        99       100       101      4444      4343      4242
      4141      4040      3939      3838      3737      3636      3535      3434
      3333      3232      3131      3030      2929      2828      2727      2626
      2525      2424      2323      2222      2121      2020      1919      1818
      1717      1616      1515      1414      1313      1212      1111      1010
       909       808       707       606       505       404       303       202
      4545      4646      4747      4848      4949      5050      5151      5252
      5353      5454      5555      5656      5757      5858      5959      6060
$ ... 30 like lines cut
*CONTACT_AUTOMATIC_SURFACE_TO_SURFACE_ID
$#     cid                                                                 title
         1Ball to Plate
$#   surfa     surfb  surfatyp  surfbtyp   saboxid   sbboxid      sapr      sbpr
         2         1         3         3         0         0         0         0
$#      fs        fd        dc        vc       vdc    penchk        bt        dt
       0.2       0.1       0.0       0.0       0.0         0       0.01.00000E20
$#    sfsa      sfsb      sast      sbst     sfsat     sfsbt       fsf       vsf
       1.0       1.0       0.0       0.0       1.0       1.0       1.0       1.0
*MAT_ADD_EROSION
$#     mid      excl    mxpres     mneps    effeps    voleps    numfip       ncs
         1       0.0       0.0       0.0    0.4876       0.0       1.0       1.0
$#  mnpres     sigp1     sigvm     mxeps     epssh     sigth   impulse    failtm
       0.0       0.0       0.0       0.0       0.0       0.0       0.0       0.0
*MAT_POWER_LAW_PLASTICITY_TITLE
Aluminium
$#     mid        ro         e        pr         k         n       src       srp
         12.68500E-6     68.95      0.33    0.0974   0.33587       0.0       0.0
$#    sigy      epsf        vp
       0.0    0.4876       0.0
*MAT_RIGID_TITLE
Steel
$#     mid        ro         e        pr         n    couple         m     alias
         27.80000E-6     200.0       0.3       0.0       0.0       0.0          
$#     cmo      con1      con2    spcnid      xspc      yspc      zspc
       0.0         0         0         0       0.0       0.0       0.0
$#lco or a1        a2        a3        v1        v2        v3    bndlco
       0.0       0.0       0.0       0.0       0.0       0.0       0.0
*NODE
$#   nid               x               y               z      tc      rc
       1           100.0           100.0             0.0       0       0
       2           100.0            98.0             0.0       0       0
       3           100.0            96.0             0.0       0       0
       4           100.0            94.0             0.0       0       0
       5           100.0            92.0             0.0       0       0
       6           100.0            90.0             0.0       0       0
       7           100.0            88.0             0.0       0       0
       8           100.0            86.0             0.0       0       0
       9           100.0            84.0             0.0       0       0
      10           100.0            82.0             0.0       0       0
      11           100.0            80.0             0.0       0       0
      12           100.0            78.0             0.0       0       0
      13           100.0            76.0             0.0       0       0
      14           100.0            74.0             0.0       0       0
      15           100.0            72.0             0.0       0       0
      16           100.0            70.0             0.0       0       0
      17           100.0            68.0             0.0       0       0
      18           100.0            66.0             0.0       0       0
      19           100.0            64.0             0.0       0       0
      20           100.0            62.0             0.0       0       0
$ ... 17532 like lines cut
*INITIAL_VELOCITY_GENERATION
$#      id      styp     omega        vx        vy        vz     ivatn      icid
         2         2       0.0       0.0       0.0     -20.0         0         0
$#      xc        yc        zc        nx        ny        nz     phase    irigid
       0.0       0.0       0.0       0.0       0.0       0.0         0         0
*PART
$#                                                                         title
Pate
$#     pid     secid       mid     eosid      hgid      grav    adpopt      tmid
         1         1         1         0         0         0         0         0
*SECTION_SHELL_TITLE
Shell section
$#   secid    elform      shrf       nip     propt   qr/irid     icomp     setyp
         1         2       1.0         4       1.0         0         0         1
$#      t1        t2        t3        t4      nloc     marea      idof    edgset
       0.1       0.1       0.1       0.1       0.0       0.0       0.0         0
*PART
$#                                                                         title
Balll
$#     pid     secid       mid     eosid      hgid      grav    adpopt      tmid
         2         2         2         0         0         0         0         0
*SECTION_SOLID_TITLE
Solid Section
$#   secid    elform       aet    unused    unused    unused    cohoff   gaskett
         2         1         0                                     0.0       0.0
*ELEMENT_SOLID
$#   eid     pid      n1      n2      n3      n4      n5      n6      n7      n8
   10001       2   10202   10323   10334   10213   10203   10324   10335   10214
   10002       2   10203   10324   10335   10214   10204   10325   10336   10215
   10003       2   10204   10325   10336   10215   10205   10326   10337   10216
   10004       2   10205   10326   10337   10216   10206   10327   10338   10217
   10005       2   10206   10327   10338   10217   10207   10328   10339   10218
   10006       2   10207   10328   10339   10218   10208   10329   10340   10219
   10007       2   10208   10329   10340   10219   10209   10330   10341   10220
   10008       2   10209   10330   10341   10220   10210   10331   10342   10221
   10009       2   10210   10331   10342   10221   10211   10332   10343   10222
   10010       2   10211   10332   10343   10222   10212   10333   10344   10223
   10011       2   10213   10334   10345   10224   10214   10335   10346   10225
   10012       2   10214   10335   10346   10225   10215   10336   10347   10226
   10013       2   10215   10336   10347   10226   10216   10337   10348   10227
   10014       2   10216   10337   10348   10227   10217   10338   10349   10228
   10015       2   10217   10338   10349   10228   10218   10339   10350   10229
   10016       2   10218   10339   10350   10229   10219   10340   10351   10230
   10017       2   10219   10340   10351   10230   10220   10341   10352   10231
   10018       2   10220   10341   10352   10231   10221   10342   10353   10232
   10019       2   10221   10342   10353   10232   10222   10343   10354   10233
   10020       2   10222   10343   10354   10233   10223   10344   10355   10234
$ ... 6980 like lines cut
*ELEMENT_SHELL
$#   eid     pid      n1      n2      n3      n4      n5      n6      n7      n8
       1       1     102     103       2       1       0       0       0       0
       2       1     103     104       3       2       0       0       0       0
       3       1     104     105       4       3       0       0       0       0
       4       1     105     106       5       4       0       0       0       0
       5       1     106     107       6       5       0       0       0       0
       6       1     107     108       7       6       0       0       0       0
       7       1     108     109       8       7       0       0       0       0
       8       1     109     110       9       8       0       0       0       0
       9       1     110     111      10       9       0       0       0       0
      10       1     111     112      11      10       0       0       0       0
      11       1     112     113      12      11       0       0       0       0
      12       1     113     114      13      12       0       0       0       0
      13       1     114     115      14      13       0       0       0       0
      14       1     115     116      15      14       0       0       0       0
      15       1     116     117      16      15       0       0       0       0
      16       1     117     118      17      16       0       0       0       0
      17       1     118     119      18      17       0       0       0       0
      18       1     119     120      19      18       0       0       0       0
      19       1     120     121      20      19       0       0       0       0
      20       1     121     122      21      20       0       0       0       0
$ ... 9980 like lines cut
*END
