$# LS-DYNA Keyword file created by LS-PrePost(R) 2025 R1 (v4.12.6) - 14May2025
$# Created on Sep-19-2026 (19:26:44)
*KEYWORD
*TITLE
$#                                                                         title
LS-DYNA keyword deck by LS-PrePost
*CONTROL_TERMINATION
$#  endtim    endcyc     dtmin    endeng    endmas     nosol
      35.0         0       0.0       0.01.000000E8         0
*DATABASE_BINARY_D3PLOT
$#      dt      lcdt      beam     npltc    psetid
       1.0         0         0         0         0
*BOUNDARY_PRESCRIBED_MOTION_SET_ID
$#      id                                                               heading
         0MovingNodes
$#    nsid       dof       vad      lcid        sf       vid     death     birth
         2         1         0         2       1.0         01.00000E28       0.0
*BOUNDARY_SPC_SET_ID
$#      id                                                               heading
         0FixingNodes
$#    nsid       cid      dofx      dofy      dofz     dofrx     dofry     dofrz
         1         0         1         1         1         1         1         1
*SET_NODE_LIST_TITLE
FixNodes
$#     sid       da1       da2       da3       da4    solver       its         -
         1       0.0       0.0       0.0       0.0MECH               1          
$#    nid1      nid2      nid3      nid4      nid5      nid6      nid7      nid8
       396       395       394       393       392       391       390       389
       388       387         1       397       398       399       400       401
       402       403       404       405       406       347         0         0
*BOUNDARY_SPC_SET_ID
$#      id                                                               heading
         2FixingMovingNodes
$#    nsid       cid      dofx      dofy      dofz     dofrx     dofry     dofrz
         2         0         0         1         1         1         1         1
*SET_NODE_LIST_TITLE
MovingNodes
$#     sid       da1       da2       da3       da4    solver       its         -
         2       0.0       0.0       0.0       0.0MECH               1          
$#    nid1      nid2      nid3      nid4      nid5      nid6      nid7      nid8
       144       184       185       186       187       188       189       190
       191       192       193       194       195       196       197       198
       199       200       201       202       203       204         0         0
*MAT_PIECEWISE_LINEAR_PLASTICITY_TITLE
ALUMINUM PURE 99.45-O CONDITION
$#     mid        ro         e        pr      sigy      etan      fail      tdel
         12.71300E-6    68.948      0.33  0.013362       0.0    0.2723       0.0
$#       c         p      lcss      lcsr        vp
       0.0       0.0         1         0       0.0
$#    eps1      eps2      eps3      eps4      eps5      eps6      eps7      eps8
       0.0       0.0       0.0       0.0       0.0       0.0       0.0       0.0
$#     es1       es2       es3       es4       es5       es6       es7       es8
       0.0       0.0       0.0       0.0       0.0       0.0       0.0       0.0
*NODE
$#   nid               x               y               z      tc      rc
       1           -44.5            -5.1             3.2       0       0
       2       -25.21908       -1.639322             3.2       0       0
       3       -44.01798       -5.013483             3.2       0       0
       4       -43.53595       -4.926966             3.2       0       0
       5       -43.05393        -4.84045             3.2       0       0
       6       -42.57191       -4.753932             3.2       0       0
       7       -42.08989       -4.667415             3.2       0       0
       8       -41.60786       -4.580898             3.2       0       0
       9       -41.12584       -4.494381             3.2       0       0
      10       -40.64381       -4.407865             3.2       0       0
      11       -40.16179       -4.321347             3.2       0       0
      12       -39.67978        -4.23483             3.2       0       0
      13       -39.19775       -4.148314             3.2       0       0
      14       -38.71572       -4.061797             3.2       0       0
      15        -38.2337        -3.97528             3.2       0       0
      16       -37.75168       -3.888763             3.2       0       0
      17       -37.26965       -3.802246             3.2       0       0
      18       -36.78763       -3.715729             3.2       0       0
      19       -36.30561       -3.629212             3.2       0       0
      20       -35.82359       -3.542695             3.2       0       0
$ ... 1825 like lines cut
*DEFINE_CURVE_TITLE
Stress Strain Curve
$#    lcid      sidr       sfa       sfo      offa      offo    dattyp     lcint
         1         0       1.0       1.0       0.0       0.0         0         0
$#                a1                  o1
                 0.0           0.0133619
    5.4421241657e-05           0.0143529
    1.6326371406e-04           0.0159435
    3.2652742811e-04           0.0177768
    5.4421240930e-04           0.0196666
    8.1631861394e-04           0.0215343
           0.0011428           0.0233503
           0.0015238           0.0251057
           0.0019592              0.0268
            0.002449           0.0284359
           0.0029932           0.0300174
           0.0035918           0.0315487
           0.0042449            0.033034
           0.0049523           0.0344768
           0.0057142           0.0358806
           0.0065305           0.0372483
           0.0074013           0.0385827
           0.0083264           0.0398862
            0.009306           0.0411609
             0.01034           0.0424087
$ ... 81 like lines cut
*DEFINE_CURVE_TITLE
Velocity
$#    lcid      sidr       sfa       sfo      offa      offo    dattyp     lcint
         2         0       1.0       1.0       0.0       0.0         0         0
$#                a1                  o1
                 0.0                 0.5
              1000.0                 0.5
*PART
$#                                                                         title
Specimen
$#     pid     secid       mid     eosid      hgid      grav    adpopt      tmid
         1         1         1         0         0         0         0         0
*SECTION_SHELL_TITLE
Shell Section
$#   secid    elform      shrf       nip     propt   qr/irid     icomp     setyp
         1         2 0.8333333         2       1.0         0         0         1
$#      t1        t2        t3        t4      nloc     marea      idof    edgset
       2.0       2.0       2.0       2.0       0.0       0.0       0.0         0
*ELEMENT_SHELL
$#   eid     pid      n1      n2      n3      n4      n5      n6      n7      n8
       1       1     144     185     407     183       0       0       0       0
       2       1     204     184     206     408       0       0       0       0
       3       1     347     406     409     348       0       0       0       0
       4       1     387       1       3     410       0       0       0       0
       5       1     185     186     411     407       0       0       0       0
       6       1     186     187     412     411       0       0       0       0
       7       1     187     188     413     412       0       0       0       0
       8       1     188     189     414     413       0       0       0       0
       9       1     189     190     415     414       0       0       0       0
      10       1     190     191     416     415       0       0       0       0
      11       1     191     192     417     416       0       0       0       0
      12       1     192     193     418     417       0       0       0       0
      13       1     193     194     419     418       0       0       0       0
      14       1     194     195     420     419       0       0       0       0
      15       1     195     196     421     420       0       0       0       0
      16       1     196     197     422     421       0       0       0       0
      17       1     197     198     423     422       0       0       0       0
      18       1     198     199     424     423       0       0       0       0
      19       1     199     200     425     424       0       0       0       0
      20       1     200     201     426     425       0       0       0       0
$ ... 1630 like lines cut
*END
